480
c-P6[b6]T6 2+ restricted singlet, BLYP35/6-31G*, E = -23378.350059
 C       -12.825437179510     -0.637512636255     -1.267458589635
 C       -13.097795539272     -1.299292424158     -2.514053082447
 C       -13.128251451144     -0.330011482251     -3.464293140719
 C       -12.830978269243      0.916173449509     -2.801204310257
 N       -12.668127941299      0.692623623723     -1.456741095762
 H       -13.283463416290     -2.353553703481     -2.631392472010
 H       -13.344820527009     -0.443826736031     -4.511964236433
 C       -12.712090789040      2.160642168085     -3.440940132746
 C       -12.393468647244      3.368899653694     -2.794727222383
 C       -12.149502039173      4.622353800331     -3.464287799887
 N       -12.208827568237      3.526100537060     -1.444758921417
 C       -11.805931400050      5.521351392057     -2.505354655122
 H       -12.226475661523      4.789372521622     -4.524415079353
 C       -11.860831170317      4.820950845874     -1.252312737838
 H       -11.561618996182      6.563114685010     -2.626523804856
 C       -11.611367506578      5.416800647370      0.013094252882
 C       -11.874059305444      4.814689965811      1.272450140762
 C       -11.821999539373      5.508663083754      2.529945447229
 N       -12.229686071272      3.520910013165      1.455469532113
 C       -12.172666040566      4.605980005158      3.481771396951
 H       -11.572109535253      6.548248155442      2.657949084290
 C       -12.416937871544      3.356623521751      2.803527036677
 H       -12.251381837534      4.766479280982      4.542736040811
 C       -12.734030120238      2.145575689062      3.443988860586
 C       -12.841620470710      0.901754277833      2.799468030918
 C       -13.149318775999     -0.346330803107      3.452898730579
 N       -12.662252537685      0.683106122012      1.455577888602
 C       -13.113416825076     -1.311504065393      2.497882422828
 H       -13.378207785942     -0.464308383958      4.497496033479
 C       -12.826716392615     -0.645488678052      1.257537136739
 H       -13.306272955087     -2.365232759237      2.608300781393
 C       -12.788218184871     -1.292924694570     -0.007096030020
 Zn      -12.046359959697      2.039514657069      0.003126085430
 C       -12.675483181015     -2.688257621561     -0.010308629412
 C       -12.387733234073     -3.877264245299     -0.009894059161
 C       -11.017520571180      6.685947147855      0.018404750935
 C       -10.346633162520      7.708116983447      0.020966142558
 C        -4.463421121076     12.120212588865      3.436761583111
 C        -3.262016559998     12.458744695191      2.791450536506
 C        -5.597766671228     11.591770747052      2.798229149926
 C        -2.096933531134     12.998716486529      3.446207145594
 N        -3.012633366722     12.325911496928      1.448066143285
 C        -6.779469079129     11.122785202263      3.480612744926
 N        -5.731594738114     11.383417701288      1.449851236975
 C        -1.142050503844     13.152646944889      2.491959924071
 H        -2.025847599056     13.243663915139      4.491398241137
 C        -1.739752724889     12.746635489181      1.250654177488
 Zn       -4.234594025545     11.461742371067      0.000787233958
 C        -7.606957621826     10.616073100962      2.531536117424
 H        -6.946246221971     11.167717633353      4.542539747427
 C        -6.938880350896     10.797268761734      1.271494043175
 H        -0.145571772305     13.545530128546      2.603731466700
 C        -1.096859989509     12.829546574299     -0.013715403550
 N        -5.729859891350     11.346408719507     -1.443994630895
 N        -3.026779368984     12.331609867962     -1.456847319904
 H        -8.583018444608     10.180340633882      2.662106964041
 C        -7.486682322139     10.427962273454      0.014408012928
 C        -1.748456770346     12.734541014979     -1.272274628119
 C         0.296192585551     12.978378615926     -0.017825484163
 C        -6.945452114644     10.778366984062     -1.251755753801
 C        -5.604777795324     11.550196503967     -2.794590041953
 C        -3.274879077475     12.432935918660     -2.802407013293
 C        -8.620989446501      9.605169643203      0.021109349907
 C        -1.147944130972     13.110841948892     -2.523133440861
 C         1.517349934244     12.911774885451     -0.017512582759
 C        -7.621446870468     10.594306794515     -2.505894692003
 C        -6.793562929613     11.086029656331     -3.464710253227
 C        -4.473699572641     12.078251886124     -3.441244519623
 C        -2.105352769036     12.949010885601     -3.471578573434
 C        -9.493237934659      8.748264636318      0.021828412252
 H        -0.146544026749     13.488018416893     -2.644223650405
 H        -8.604098270444     10.170892351526     -2.627653611068
 H        -6.968854268200     11.128245330000     -4.525431523306
 H        -2.033378484134     13.168969691322     -4.522227275915
 C        11.891261657484      5.132565049529      0.016028518525
 C        12.360582495931      3.871421547219      0.015233115297
 C        11.340252427062      6.224130970871      0.015815326274
 C        12.658044526626      2.685476611242      0.014588254584
 C        10.525797944927      7.364492831890      0.015135347785
 C        12.792669461300      1.290394081684      0.008825300254
 C        10.107409423161      7.869254908068      1.274799916342
 C        10.145926026133      7.893078940274     -1.247721567962
 C        12.833687849151      0.632546882655      1.266689854756
 C        12.821016628348      0.645095332008     -1.256409853614
 C        10.666357055592      7.471106494338      2.536785815143
 N         9.151769371770      8.814768006789      1.453229463282
 C        10.792338190363      7.565922184985     -2.489610471396
 N         9.156423323821      8.793812161028     -1.445865060561
 N        12.730796867504     -0.705499317837      1.446839221325
 C        13.013080897800      1.302410296101      2.525860760357
 N        12.699556092790     -0.691681805525     -1.447273616167
 C        13.000629764527      1.320685294997     -2.511305253844
 C        10.043304674561      8.217586473311      3.485934304703
 H        11.446549720537      6.740841997256      2.669873255774
 C         9.090489225334      9.055565013431      2.802227717778
 Zn        7.786601769965      9.410949903562     -0.001336400570
 C        10.181610844992      8.309580310989     -3.446848087235
 H        11.625038411945      6.891870562146     -2.599211438957
 C         9.135432772466      9.057266851169     -2.791978479964
 C        12.842454907589     -0.924124364598      2.795509509197
 Zn       12.049185133257     -2.042156188617     -0.001423754914
 C        13.032007591679      0.333588341061      3.476417399041
 H        13.129926502665      2.365081511977      2.655023366644
 C        12.811309993381     -0.903197663025     -2.797664679251
 C        13.007274725980      0.356983064428     -3.469255901333
 H        13.128970764531      2.382812353956     -2.634268860550
 H        10.211286179376      8.202154298611      4.548549573105
 C         8.206924773269      9.946745340559      3.436595757759
 N         6.938951531386     10.653819280890      1.440854390083
 N         6.950550240044     10.641194548985     -1.458286919924
 H        10.421353319258      8.357740996799     -4.494532321364
 C         8.226623066831      9.905981571459     -3.443066896350
 C        12.729585053317     -2.169880237183      3.435628014939
 N        12.185485783785     -3.531493179607      1.447786626341
 N        12.199353173831     -3.525369346327     -1.457138578851
 H        13.154253360861      0.456369273622      4.538260715291
 C        12.700460356926     -2.147329872288     -3.443354289800
 H        13.130452196773      0.486237821848     -4.530262162472
 C         7.206956552521     10.686179176622      2.785920110218
 C         5.875834146464     11.466425111080      1.243013429669
 C         7.194062784845     10.618575036852     -2.808064434937
 C         5.850667047736     11.413953136559     -1.279295877208
 C        12.422637585361     -3.379983395350      2.791666246290
 C        11.914605042195     -4.844388419172      1.251721221023
 C        11.910122322445     -4.833772801679     -1.271554869698
 C        12.409185236762     -3.361973037106     -2.803332590484
 C         6.287139193931     11.585211776945      3.440153598476
 C         5.443175763319     12.049573029156      2.483895774480
 C         5.283747051218     11.741125669727     -0.018972606273
 C         6.197517086912     11.404218124602     -3.491552880425
 C         5.355226487582     11.888201507245     -2.541504443245
 C        12.306894418717     -4.658110487782      3.447900801935
 C        11.965559519810     -5.563479543251      2.494057497275
 C        11.666974742158     -5.444702176392     -0.012396368280
 C        11.934414817422     -5.542974493114     -2.522014914196
 C        12.270901064552     -4.633449105106     -3.471490706611
 H         6.295615168188     11.834345624681      4.486720463565
 H         4.631932811570     12.749340616469      2.593313995613
 C         4.016608013858     12.339190121022     -0.018209888506
 H         6.149022698646     11.562768961954     -4.554622946204
 H         4.497375224546     12.525512173895     -2.674231259156
 H        12.481552718392     -4.840565942060      4.493707254601
 H        11.808516267486     -6.622943993031      2.606658427374
 C        11.101368377568     -6.725861537469     -0.015052162292
 H        11.759980374932     -6.598832071351     -2.642142126208
 H        12.423539268964     -4.806145571922     -4.522347329928
 C         2.843344448849     12.684074619803     -0.017985707962
 C        10.434967232303     -7.751589559539     -0.013779459937
 C         9.575802451921     -8.786216999635     -0.012089268229
 C         8.690631830200     -9.630363739346     -0.010071787588
 C         7.537381810092    -10.424658412609     -0.006603621752
 C         6.988980908521    -10.784686831747     -1.266883974288
 C         6.994705883143    -10.780163238394      1.257843603199
 C         7.699438745194    -10.692286546342     -2.512910113820
 N         5.757466486753    -11.311953283386     -1.456758929210
 N         5.760624073367    -11.299765282288      1.455519096768
 C         7.714346246200    -10.696926944885      2.498384540795
 C         6.875294529312    -11.203365668405     -3.463204054778
 H         8.705894043346    -10.327545597487     -2.629963381510
 C         5.646310085761    -11.566132051660     -2.800755537558
 Zn        4.279229437752    -11.443189849415      0.001741771739
 C         5.659933904484    -11.564258785859      2.799142382318
 C         6.894959581590    -11.209248054453      3.453106836426
 H         8.724199827996    -10.339580491154      2.609208969853
 H         7.082925008453    -11.335670592299     -4.510496945089
 C         4.508515860050    -12.084123272290     -3.441362563806
 N         3.072453490256    -12.326082174682     -1.446196499309
 N         3.084733993388    -12.338662075596      1.454038415801
 C         4.527126958568    -12.090585944048      3.443343565604
 H         7.111068456723    -11.349340482811      4.497700902312
 C         3.301887396242    -12.409009328249     -2.796110743902
 C         1.775849919827    -12.666974071583     -1.254798933223
 C         1.785712096464    -12.672781613445      1.270252224472
 C         3.319623808091    -12.418726636123      2.802530885454
 C         2.093339428247    -12.820880525535     -3.466364757421
 C         1.141664412148    -12.968383136415     -2.508253447300
 C         1.133459133563    -12.744347512121      0.010148285209
 C         1.156605094660    -12.971992379803      2.527438949030
 C         2.113494733434    -12.827530271774      3.479954279211
 H         1.987521721195    -12.971201985604     -4.526501719321
 H         0.116066422726    -13.273211356767     -2.630077009494
 C        -0.262774117919    -12.856756335417      0.014181290207
 H         0.130225834954    -13.271926017176      2.654614680981
 H         2.012635943360    -12.975480553558      4.540887505869
 C        -1.483212291395    -12.780582787092      0.014865484218
 C        -2.809526311709    -12.557132011335      0.014691819570
 C        -3.987691760872    -12.229728106700      0.013302533978
 C        -5.269713892990    -11.665410912344      0.012125003233
 C        -5.859190209089    -11.388901438880     -1.250614571886
 C        -5.854712085330    -11.376885270632      1.274427106953
 C        -5.360597742964    -11.883714543907     -2.504474121260
 N        -6.975906115557    -10.647230502310     -1.440149824419
 N        -6.967941377024    -10.628198545925      1.459722853745
 C        -5.359064011270    -11.865954922061      2.530981434173
 C        -6.214831256664    -11.436979650756     -3.460843291521
 H        -4.489530079211    -12.504826261914     -2.627083838027
 C        -7.220910455346    -10.651412083364     -2.789050513413
 Zn       -7.811932896029     -9.401816204860      0.004830225141
 C        -7.216590159826    -10.627071429913      2.808671842643
 C        -6.212916755314    -11.411079255801      3.484802515791
 H        -4.491010318904    -12.490487957825      2.657756339655
 H        -6.165772669369    -11.614423431534     -4.520905792701
 C        -8.251567590881     -9.946516914842     -3.435505738824
 N        -9.159120321698     -8.783956105781     -1.454988065310
 N        -9.169002546494     -8.786270847681      1.457093442851
 C        -8.251801358395     -9.921460641816      3.448155843584
 H        -6.166035182567    -11.584704621359      4.545625677407
 C        -9.148383192318     -9.072779270937     -2.797468722036
 C       -10.151840594651     -7.884251315021     -1.263765287401
 C       -10.155770266496     -7.881884611863      1.261204222849
 C        -9.152921260790     -9.059313056545      2.802034769000
 C       -10.194849922685     -8.331891377933     -3.457071995973
 C       -10.800419474568     -7.572751456754     -2.507171652663
 C       -10.549062182574     -7.363653615676     -0.002267421055
 C       -10.800504195287     -7.556463726789      2.503881580992
 C       -10.195506850971     -8.309030612676      3.458472684334
 H       -10.442732753416     -8.397110516710     -4.501957552370
 H       -11.634358701489     -6.901255082995     -2.622948197393
 C       -11.371075949028     -6.230576622145     -0.005211842943
 H       -11.630239390758     -6.879190410556      2.615883309744
 H       -10.439358307709     -8.362716334752      4.504946541899
 C       -11.922885818693     -5.138767481316     -0.008131081379
 C        -8.392377882445    -10.133978626156     -4.911084584881
 C        -8.152715096723     -9.080451473946     -5.799363867904
 C        -8.768532034940    -11.377523577816     -5.430236856080
 H        -7.854673180479     -8.115236869877     -5.410691012681
 H        -8.964447956950    -12.197984667690     -4.752590031546
 C        -8.284456186137     -9.265432884072     -7.171335731759
 C        -8.906104380800    -11.560340348735     -6.801856263254
 H        -8.089666737348     -8.441247456684     -7.845377525345
 H        -9.206878917842    -12.526260661990     -7.185927096893
 C        -8.663165192784    -10.505508183922     -7.676298514244
 H        -8.769287456591    -10.648771151861     -8.743576815467
 C        -8.389520149246    -10.094174982640      4.926055328216
 C        -8.767087301891    -11.331374895528      5.458907364878
 C        -8.144450230184     -9.032012566704      5.802438815169
 H        -8.967082318967    -12.158315156709      4.790351029446
 H        -7.846293501527     -8.071458996398      5.402424417198
 C        -8.900732645350    -11.499741168399      6.832805813866
 C        -8.272501150666     -9.202604170442      7.176677032366
 H        -9.202629049524    -12.460909609804      7.227774060610
 H        -8.074096508656     -8.371893046592      7.841605950354
 C        -8.652499683075    -10.436532450738      7.695544081152
 H        -8.755710835512    -10.568548033303      8.764562064115
 C       -12.925946602625      2.208143716901     -4.919189446619
 C       -12.042573220531      1.571037985290     -5.796682104811
 C       -14.021129520341      2.897112907211     -5.451205220808
 H       -11.188662819961      1.039152474154     -5.397271761559
 H       -14.715883025971      3.387101451726     -4.781857114273
 C       -12.248066741282      1.622366159981     -7.171167847928
 C       -14.229393748511      2.943143400259     -6.825364005271
 H       -11.552148630596      1.128345693961     -7.836920719969
 H       -15.086720503042      3.472738815306     -7.219708778194
 C       -13.342913311294      2.307300974833     -7.689198615910
 H       -13.505056362874      2.344383074485     -8.758410626571
 C       -12.961758871766      2.187253455001      4.920104092606
 C       -12.088946977934      1.544414984286      5.804004368408
 C       -14.060758880699      2.876482203682      5.444068170466
 H       -11.231415254172      1.013238107838      5.411537531168
 H       -14.747475364694      3.370990825102      4.769799765346
 C       -12.308188229140      1.590414612977      7.176491219657
 C       -14.283005914929      2.917003430843      6.816166076564
 H       -11.619807940209      1.092531424666      7.847159460879
 H       -15.143091314176      3.446925092010      7.203999376659
 C       -13.406819873964      2.275476062331      7.686267043757
 H       -13.579655697942      2.308491242304      8.753930219526
 C        -4.553661289962     12.262867582361     -4.922375682350
 C        -5.415792730733     13.219207663221     -5.468993308294
 C        -3.773987089601     11.487884203800     -5.786928973544
 H        -6.018005167925     13.829977330604     -4.809285840336
 H        -3.107808994114     10.740885976467     -5.375007340443
 C        -5.492344134962     13.398683805957     -6.845943304455
 C        -3.855250674455     11.664056540367     -7.164099184959
 H        -6.157848431610     14.149085995086     -7.252181520862
 H        -3.248942526585     11.052841890375     -7.820156769967
 C        -4.713454183241     12.620904245206     -7.697237047679
 H        -4.774112849756     12.760518196763     -8.768571416081
 C        -4.539935453830     12.327579189269      4.914622933333
 C        -3.751100235425     11.573469160503      5.789414205195
 C        -5.408319467194     13.285543033641      5.448664302995
 H        -3.081291795532     10.824074605715      5.387980847278
 H        -6.017812287399     13.880276324830      4.781092031114
 C        -3.829516491303     11.771267228652      7.163716761715
 C        -5.481669128786     13.487165540330      6.822654129113
 H        -3.216845283319     11.175176855534      7.827710413675
 H        -6.152040792726     14.238634105074      7.218771191519
 C        -4.693659761699     12.729874520887      7.683971309913
 H        -4.752144128291     12.886394042310      8.753081310222
 C         8.355826639322     10.058098370532     -4.924339671477
 C         8.741732037776     11.283573537714     -5.477577413750
 C         8.095021429412      8.985147472772     -5.782727210404
 H         8.953845225648     12.118434263332     -4.822670109324
 H         7.790165893852      8.033985894289     -5.365826524139
 C         8.867848846647     11.430336705590     -6.854734872470
 C         8.215668725495      9.134325429586     -7.160183452439
 H         9.176155208342     12.382624786930     -7.265975587102
 H         8.005206967899      8.295743426606     -7.811402339902
 C         8.603870009568     10.356779986697     -7.699808179316
 H         8.701303764258     10.471937061412     -8.771338702427
 C         8.339250183240     10.107784299430      4.916621325449
 C         7.333357945587      9.664042007698      5.781109362377
 C         9.478566117864     10.708419102285      5.462531785176
 H         6.450137767017      9.192528705499      5.369957710917
 H        10.259635942442     11.062839552313      4.802831523955
 C         7.464182625534      9.815762126750      7.157361133037
 C         9.606007595773     10.865126568798      6.838460758007
 H         6.679203179037      9.462188475732      7.813403004066
 H        10.489752221499     11.340082722992      7.243967309174
 C         8.600042992022     10.418070863808      7.689647818989
 H         8.700287694306     10.539416777364      8.760234250715
 C        12.897285086955     -2.171615173836     -4.924931630463
 C        14.156228936772     -1.907684870305     -5.474447547145
 C        11.833360397146     -2.456267584726     -5.786844849710
 H        14.988453331130     -1.693865468911     -4.816723272576
 H        10.853673812510     -2.656381925950     -5.372537044948
 C        14.346735815163     -1.932458708596     -6.851829139547
 C        12.023381491489     -2.475214155621     -7.164450298243
 H        15.329083687624     -1.734772374382     -7.260408613888
 H        11.188674301644     -2.692176335132     -7.818514509131
 C        13.280793249807     -2.214872995506     -7.700557948178
 H        13.429537803548     -2.233064646995     -8.772227524280
 C        12.944364198569     -2.205549169952      4.914050209884
 C        14.208050924466     -1.936606242286      5.450413179758
 C        11.893796047766     -2.506243236789      5.786969623804
 H        15.030173858648     -1.710286662328      4.784283228078
 H        10.910090012731     -2.708648760629      5.383520818634
 C        14.416148330704     -1.972545241318      6.824936770357
 C        12.101105234992     -2.535848560964      7.161805550524
 H        15.402029813622     -1.770921204258      7.222921822546
 H        11.276209797918     -2.764175272561      7.824386490624
 C        13.363225543759     -2.270837939637      7.684420834956
 H        13.525556083238     -2.297327814052      8.753934979191
 C         4.575425145322    -12.294230153156     -4.919355052462
 C         4.689652293076    -11.211506873402     -5.797390542860
 C         4.523157771781    -13.587378376955     -5.450553864887
 H         4.725690321501    -10.205874823496     -5.398676812932
 H         4.442961545727    -14.433351854607     -4.780705397417
 C         4.749009694179    -11.416225192325     -7.171651402508
 C         4.588478814450    -13.791839744352     -6.824504147367
 H         4.832198206767    -10.567192088339     -7.837823591928
 H         4.556068719323    -14.799267893628     -7.218242198556
 C         4.700144365720    -12.707072286288     -7.688885589137
 H         4.750002493193    -12.866862472144     -8.757933270009
 C         4.603794060846    -12.308365070231      4.919546231899
 C         4.552608749890    -13.604439910385      5.443892320590
 C         4.726866914509    -11.231196278859      5.803232413418
 H         4.465561349718    -14.446304660694      4.769779694375
 H         4.761069402436    -10.223172757156      5.410452956785
 C         4.627746765564    -13.817018176785      6.816072187158
 C         4.795829153463    -11.443856808173      7.175787897255
 H         4.596030199189    -14.826649410228      7.204167995932
 H         4.885195810468    -10.598847877022      7.846265787082
 C         4.748165974027    -12.737571224221      7.685914541567
 H         4.805480154206    -12.903641964826      8.753624850132
 C         0.887890322952      1.073413778268     -0.002809838877
 C        -0.500520765052      1.308489709669     -0.002516760803
 C         1.379181138489     -0.246404080197     -0.002543349127
 C        -1.399000974236      0.223504793534     -0.001994302920
 C         0.481571379907     -1.332104991858     -0.001598096146
 C        -0.907903776527     -1.097182507065     -0.001662387286
 C        -1.020646978505      2.715257171925     -0.003218481280
 C        -1.664646837421      3.245471676177     -1.124402124825
 C        -0.875775230539      3.536426598598      1.118332378097
 H        -1.786413258772      2.634446312761     -2.008919903906
 H        -0.385820379121      3.151125187454      2.002612370076
 C        -2.145323959783      4.547980216551     -1.125446664083
 C        -1.358628450165      4.837909970188      1.120936541562
 H        -2.613823700273      4.936421113264     -2.019991419160
 H        -1.255776204916      5.436577550835      2.016205586692
 C        -2.002810018497      5.370171749996     -0.001797431950
 C         1.843598394523      2.229516536406     -0.002393922861
 C         1.986391960734      3.046690599790     -1.127018006233
 C         2.618308321947      2.523037228493      1.123056594972
 H         1.403153306945      2.840408090525     -2.014598188808
 H         2.525211982952      1.910514680952      2.009997919073
 C         2.871777006585      4.116057426160     -1.128147241771
 C         3.501262104893      3.594360745088      1.125838164578
 H         2.978623335301      4.710556858100     -2.025730494794
 H         4.064342269090      3.810577444678      2.023994479819
 C         3.646617537337      4.412213677384     -0.000730589915
 C         2.858737752965     -0.492847116439     -0.001500003115
 C         3.639222830238     -0.193416521294     -1.121568809626
 C         3.500049323395     -1.026423721227      1.119668187971
 H         3.169340776784      0.216014293360     -2.005887087601
 H         2.922109332773     -1.263025098914      2.003157723609
 C         5.008844085199     -0.420260328522     -1.122577334648
 C         4.870100695576     -1.251190184431      1.122213017704
 H         5.578433262998     -0.203780387924     -2.016582854923
 H         5.339160681016     -1.638577442576      2.016916652233
 C         5.652129004223     -0.953365714740      0.000273011046
 C         1.006020564546     -2.737360023592      0.000848555723
 C         1.682203971654     -3.256103492216     -1.107021355147
 C         0.833596897830     -3.569535250452      1.110549227570
 H         1.841086661769     -2.631937625505     -1.976132512284
 H         0.304411575563     -3.199338186501      1.978411481220
 C         2.162506303514     -4.558654136444     -1.108851388275
 C         1.321416869786     -4.869372155328      1.114862121062
 H         2.699081790808     -4.921324201479     -1.975517602994
 H         1.151854325064     -5.493257793622      1.982416274045
 C         1.993348215747     -5.391043626787      0.003478621860
 C        -1.863857234457     -2.252985301449     -0.001329794739
 C        -2.672118997329     -2.519564780334      1.107388636018
 C        -1.973698901475     -3.097687397764     -1.109504983307
 H        -2.617326927356     -1.875842988578      1.975101888193
 H        -1.352289579195     -2.922969631840     -1.977618082097
 C        -3.552638269380     -3.592935758675      1.111290061232
 C        -2.861232132358     -4.165279784536     -1.112161899951
 H        -4.177946034282     -3.759204725786      1.978448678064
 H        -2.906700099749     -4.811374453793     -1.978835216060
 C        -3.666631213955     -4.435839922352     -0.000073205564
 C        -2.877363141610      0.477273792640     -0.002095139572
 C        -3.665109431023      0.155564290065     -1.110923086049
 C        -3.510063865324      1.046207639314      1.106876172658
 H        -3.205232752950     -0.296441216225     -1.979535223461
 H        -2.924618604026      1.316407518660      1.975439732821
 C        -5.032260320233      0.397842405515     -1.113782703656
 C        -4.878351309127      1.280623067500      1.110146146096
 H        -5.615529379827      0.117696387788     -1.980936435750
 H        -5.331994922177      1.741767134814      1.977385650974
 C        -5.666795213133      0.963228589568     -0.001785198722
 C         7.114463635552     -1.195691442779      0.001003772197
 C         7.680680170747     -2.276907101205      0.685336258253
 C         9.052937471456     -2.465939430494      0.662772105747
 N         9.891221029316     -1.657700171791      0.002992242008
 C         9.360984868160     -0.621969434721     -0.658369285749
 C         8.001232934223     -0.356407058437     -0.682729917007
 H         7.059619231708     -2.985818492423      1.213853837076
 H         9.507487101952     -3.296478227899      1.184524185713
 H        10.059602457447      0.016346541599     -1.181162506737
 H         7.643893972825      0.514196425745     -1.213806034259
 C         4.590928464332      5.554813382504      0.000172029489
 C         5.798262821204      5.511934474443      0.706421590674
 C         6.651215514794      6.603521744690      0.683017030591
 N         6.385129035220      7.724363981661      0.001665422946
 C         5.234662309669      7.776022742310     -0.680289296798
 C         4.322545613461      6.733326844023     -0.705134767022
 H         6.090111088958      4.627530010230      1.254382526915
 H         7.587872210046      6.586007361500      1.222634759929
 H         5.042258554271      8.693145280065     -1.219533786857
 H         3.399490791807      6.854299702219     -1.253728696103
 C        -2.517380838450      6.760125406302     -0.000093075871
 C        -1.861638929386      7.786860394851      0.688383935912
 C        -2.378512521409      9.072052674542      0.666842507084
 N        -3.494057849546      9.399848174553      0.003999295765
 C        -4.128297002955      8.426779114997     -0.660887472405
 C        -3.684085697053      7.114630611475     -0.686364105318
 H        -0.940299647956      7.598155135739      1.220556105010
 H        -1.885100177527      9.877879106228      1.192142404467
 H        -5.027761912787      8.717421823509     -1.185418025759
 H        -4.261813988947      6.373068370619     -1.219156207061
 C        -7.127104033160      1.217359524346     -0.000551180324
 C        -7.895688999512      1.082642393211      1.161294260199
 C        -9.258164365639      1.329564879917      1.118873267887
 N        -9.897713816002      1.696745882210      0.003015639997
 C        -9.174698355613      1.829345741209     -1.114508648618
 C        -7.808461767077      1.604240600125     -1.160339811649
 H        -7.445352860450      0.763070749362      2.090040769473
 H        -9.871138855560      1.222817192860      2.003306080664
 H        -9.718249892400      2.135335179060     -1.997971473630
 H        -7.279260190924      1.754131659230     -2.090468365160
 C        -4.611176001743     -5.578068447890      0.000468062819
 C        -4.870847070939     -6.317534915222      1.159985278394
 C        -5.763829802449     -7.375815904723      1.116794623226
 N        -6.406689671850     -7.741379022052      0.002187060125
 C        -6.165402831430     -7.044210269984     -1.113507474878
 C        -5.289723897219     -5.971698267104     -1.158502573949
 H        -4.364704228190     -6.090579748353      2.087301883234
 H        -5.972601738917     -7.964122264706      1.999879935943
 H        -6.706195540282     -7.359033276574     -1.995436697783
 H        -5.159960503859     -5.433754687269     -2.086595406495
 C         2.510320580620     -6.780187984828      0.004036954445
 C         3.014547326391     -7.377324446372      1.165106179188
 C         3.490080927732     -8.677724490640      1.120610572960
 N         3.496886032816     -9.413135340106      0.003432997924
 C         3.016750193811     -8.854584405947     -1.113104323424
 C         2.520492557797     -7.561885394569     -1.156877326089
 H         3.061753812605     -6.828969711347      2.095002014770
 H         3.891420012208     -9.154529956491      2.004348551034
 H         3.026934483867     -9.476850916223     -1.997526035750
 H         2.122841656278     -7.179938224517     -2.086130669223
