480
c-P6[b6]T6 6+, BLYP35/6-31G*, E = -23377.0273418
 C        12.972876608041     -0.059614498066      1.279962666750
 C        13.410047623165     -0.676999859367      2.500499136631
 C        13.434251887295      0.309645158592      3.432823384498
 C        12.958968740491      1.510305092190      2.788483236244
 N        12.702495797445      1.238335315320      1.452085539794
 H        13.717936710402     -1.703149325451      2.609721876718
 H        13.766723686379      0.238694607275      4.453199553739
 C        12.791900623494      2.746432012815      3.407657605707
 C        12.312758332887      3.922688681180      2.751560508990
 C        11.968971004996      5.145846516160      3.423082986838
 N        12.066188377047      4.033087108937      1.419167292610
 C        11.499800660698      5.996972034159      2.468588765038
 H        12.067833353806      5.332276122308      4.477619392487
 C        11.584345723012      5.292642093339      1.224646569496
 H        11.164278284160      7.012328121301      2.594174834681
 C        11.271489800707      5.844195867716     -0.041370734567
 C        11.575531952985      5.271009815401     -1.298257025817
 C        11.468542475255      5.950290942168     -2.555303384547
 N        12.067542670843      4.012048507983     -1.474093185434
 C        11.932960752839      5.085026432041     -3.498113312620
 H        11.120278865027      6.959248651398     -2.696542496516
 C        12.295680830880      3.877982356479     -2.806107505757
 H        12.015319445496      5.250379749770     -4.557548569832
 C        12.773793790432      2.692705204284     -3.447047869431
 C        12.942952514545      1.465800239604     -2.809783811961
 C        13.431814745340      0.259654296527     -3.432452819656
 N        12.681606765983      1.212006182606     -1.469880273400
 C        13.415015061383     -0.711947767464     -2.483816464439
 H        13.770127021206      0.175710124929     -4.449932121658
 C        12.967154615786     -0.079842705020     -1.275325520433
 H        13.735259905039     -1.736071608420     -2.574975341469
 C        12.908902134483     -0.741319428570      0.008191586478
 Zn       11.949848166918      2.524790000459     -0.014793382046
 C        12.801160325513     -2.098564382841      0.016948446429
 C        12.537710464419     -3.313493660986      0.020083885173
 C        10.577496413807      7.073956086392     -0.048627767142
 C         9.844450004275      8.045800581163     -0.050920137689
 C         3.881969200361     12.501228059992     -3.412722522719
 C         2.677407601438     12.778645228725     -2.770655838945
 C         5.019269555818     11.910070395067     -2.779535903046
 C         1.529179050430     13.400157572044     -3.383122516407
 N         2.396893855402     12.520634391135     -1.435368073490
 C         6.181909616845     11.435796596582     -3.481240011955
 N         5.139477004836     11.668396710840     -1.449522186190
 C         0.560112605731     13.469646991609     -2.433569090648
 H         1.481958405876     13.763761667083     -4.394219465919
 C         1.141099330699     12.938468446838     -1.234224816475
 Zn        3.643672920353     11.658423630365      0.010032309378
 C         7.004679791583     10.888092437405     -2.545989213790
 H         6.346305633146     11.503900976493     -4.541791791568
 C         6.346878705841     11.056759987534     -1.283809181849
 H        -0.424616001501     13.897359177318     -2.517933441169
 C         0.475716406156     12.921987999987      0.048550165459
 N         5.161078440478     11.629310838928      1.438821237538
 N         2.431916527664     12.520536053901      1.481883321895
 H         7.974507158652     10.444673060873     -2.694583671305
 C         6.895789907087     10.695144002559     -0.032697427699
 C         1.160043152385     12.900571553613      1.319089253296
 C        -0.886521859959     12.939105096947      0.055369538713
 C         6.378292044597     11.050295799523      1.237706581727
 C         5.072899285466     11.873510352262      2.773992377602
 C         2.723719552908     12.722285995319      2.822493798794
 C         8.051295481211      9.883774457702     -0.046363106512
 C         0.581561899726     13.360181708944      2.550402048415
 C        -2.119620958564     12.785072005355      0.055450269628
 C         7.075275258423     10.899126244766      2.478910100616
 C         6.265312211018     11.427400523926      3.439186884997
 C         3.940860506542     12.438507045585      3.437371589014
 C         1.567397900919     13.281678841808      3.480369934932
 C         8.939986389727      9.051769322010     -0.050028467406
 H        -0.415192616029     13.750258938842      2.668821856399
 H         8.060990059805     10.482968328106      2.599550679704
 H         6.461163839786     11.502420827797      4.493945503680
 H         1.524971577238     13.595393632548      4.508205487141
 C       -11.964002583164      4.532935837023     -0.037293927943
 C       -12.374733438191      3.244162967676     -0.041457388503
 C       -11.489338884058      5.654171165323     -0.033011225984
 C       -12.636303244187      2.055150198943     -0.044768513620
 C       -10.751124078045      6.857256839769     -0.024244556662
 C       -12.743808469625      0.647174984561     -0.039777753401
 C       -10.367781342758      7.387217234844     -1.276895731660
 C       -10.447764603411      7.414333687016      1.243344113406
 C       -12.774490314125     -0.001152068240     -1.296010420342
 C       -12.785387813621      0.013145028975      1.225616627858
 C       -10.877850801790      6.950952261068     -2.542123408956
 N        -9.516910688542      8.442657323719     -1.441892937785
 C       -11.133687147808      7.089644929286      2.458542687332
 N        -9.518944793441      8.383318053554      1.457965801619
 N       -12.684269969905     -1.349880744796     -1.471459695878
 C       -12.964211394692      0.660198841702     -2.553170447927
 N       -12.670349910982     -1.331771488602      1.417907072848
 C       -13.006874355752      0.682713980067      2.471659392344
 C       -10.345754360526      7.785925464344     -3.477722763396
 H       -11.576206916981      6.145577578426     -2.693883310993
 C        -9.498142777412      8.708339035753     -2.773851630899
 Zn       -8.170740362214      9.072765727137      0.019980048434
 C       -10.623920970482      7.913231044774      3.414714113538
 H       -11.935377930284      6.377393285679      2.555964233406
 C        -9.592633747712      8.691024648256      2.782322695673
 C       -12.829079517314     -1.566775533308     -2.803967730926
 Zn      -11.927118669455     -2.647763744456     -0.018556587471
 C       -13.013641362776     -0.319649162279     -3.496178697852
 H       -13.078677469536      1.721532076194     -2.693631135546
 C       -12.838471661159     -1.539639050044      2.751091671514
 C       -13.054696975213     -0.289534094406      3.425058027378
 H       -13.144865787264      1.742885863734      2.599586585094
 H       -10.515378443351      7.774841872728     -4.539620715364
 C        -8.721878061321      9.732194237088     -3.405371049148
 N        -7.414152736397     10.397677101647     -1.420252609207
 N        -7.455982782073     10.381058316588      1.482687040155
 H       -10.933331597225      7.995605722091      4.441126172095
 C        -8.769480571706      9.644012382043      3.447776449543
 C       -12.756382267784     -2.840871465466     -3.446715365461
 N       -12.037396760549     -4.148929195772     -1.474853891629
 N       -12.071338503076     -4.140267227475      1.442453067707
 H       -13.155069892207     -0.204875232797     -4.556018979247
 C       -12.761908133872     -2.807501470826      3.405913705375
 H       -13.219117769791     -0.165763326049      4.480576146668
 C        -7.765051879851     10.505993606871     -2.758688780311
 C        -6.443124265351     11.292074236383     -1.219444820735
 C        -7.756758666453     10.384836427044      2.834223266583
 C        -6.407209748053     11.204447202865      1.332715482687
 C       -12.388983275278     -4.025494529366     -2.812317663439
 C       -11.764442238951     -5.445475218469     -1.282503550297
 C       -11.767152757148     -5.430856270279      1.271628128748
 C       -12.398555998786     -3.998144838545      2.783252239630
 C        -6.977077696818     11.549562157437     -3.372050386118
 C        -6.130504160152     12.017119492075     -2.420373028799
 C        -5.817359911063     11.537724994204      0.060437583826
 C        -6.828686317087     11.243659896581      3.525380091418
 C        -5.978840820449     11.744657846622      2.590435894342
 C       -12.336713869301     -5.324280864242     -3.436612824036
 C       -11.915940389414     -6.204021376659     -2.490711348495
 C       -11.432095189935     -6.024520167126     -0.001040576013
 C       -11.884620521841     -6.171487377105      2.496632645629
 C       -12.311170723622     -5.284923741519      3.431480771231
 H        -7.078103500946     11.893280229096     -4.386159778954
 H        -5.409318043591     12.812544218204     -2.503549780273
 C        -4.585435976970     12.121066146090      0.059147377644
 H        -6.826027331074     11.435042360814      4.583866771477
 H        -5.167187143889     12.437733509452      2.733379919031
 H       -12.615751891221     -5.539536631742     -4.452772925998
 H       -11.786096590523     -7.269031649550     -2.583557389405
 C       -10.769645700710     -7.214455572125      0.004020628214
 H       -11.726323533562     -7.230880893561      2.607417432059
 H       -12.566552433619     -5.485563418662      4.456769158770
 C        -3.402500006563     12.501003744071      0.056731150609
 C       -10.025005027327     -8.209760159218      0.004400847080
 C        -9.143749481929     -9.183361238579      0.004142426937
 C        -8.227444737123    -10.023387022844      0.003046086645
 C        -7.108641255675    -10.799417972584      0.000988379989
 C        -6.556451999452    -11.191187397766      1.277041320529
 C        -6.561146635508    -11.189294621288     -1.278224564989
 C        -7.315592916525    -11.256702798873      2.494103732898
 N        -5.297785262867    -11.604414681362      1.456717525002
 N        -5.299389292913    -11.591384731556     -1.465516786728
 C        -7.328080161589    -11.268581703604     -2.488736806734
 C        -6.477373193947    -11.766717936773      3.432493704893
 H        -8.358858306634    -11.010497252433      2.597390380829
 C        -5.196613314691    -11.956794938249      2.795179728043
 Zn       -3.802384102315    -11.604983245229     -0.005123369657
 C        -5.206062894448    -11.954722167889     -2.802176140808
 C        -6.492359566886    -11.777667716299     -3.430702303515
 H        -8.374558375935    -11.033399263014     -2.585347648581
 H        -6.709951620186    -12.015403790175      4.452678697501
 C        -4.044812926529    -12.425535768209      3.421984534498
 N        -2.559980786774    -12.450198372226      1.439539492023
 N        -2.568105393722    -12.460895291424     -1.453300748542
 C        -4.056888131953    -12.428539286177     -3.431623845827
 H        -6.731267420837    -12.036272469420     -4.446975832902
 C        -2.783225091290    -12.599419242429      2.771985224494
 C        -1.226432349468    -12.658160241703      1.251716181613
 C        -1.232266887636    -12.659770429463     -1.271354824918
 C        -2.793742763732    -12.602429149009     -2.785145191018
 C        -1.553343731723    -12.902882047977      3.450742979884
 C        -0.577777687007    -12.924686283960      2.500317348670
 C        -0.587843215774    -12.669578890091     -0.011691478877
 C        -0.585744270054    -12.916068816885     -2.523896472408
 C        -1.564254287736    -12.895584885630     -3.470375756470
 H        -1.444665028739    -13.073002418122      4.507065838583
 H         0.469860369004    -13.135541503119      2.631714922105
 C         0.824040771797    -12.675060563245     -0.013423009068
 H         0.463050775681    -13.118120924727     -2.659776423123
 H        -1.458228818334    -13.058194072856     -4.528140106590
 C         2.031059266304    -12.517266135498     -0.010630381861
 C         3.352926733500    -12.230061257365     -0.006433106400
 C         4.516566885254    -11.872731294564     -0.001170238277
 C         5.799189557125    -11.282364752126      0.003486466496
 C         6.374100821985    -11.005582436169      1.266239679851
 C         6.382891957831    -11.008113162772     -1.256803445603
 C         5.884453653146    -11.505823340023      2.516351850293
 N         7.506592634827    -10.271105040103      1.454519954101
 N         7.511347179064    -10.266358596889     -1.438522377895
 C         5.910427021230    -11.520586019526     -2.507768258458
 C         6.760952964402    -11.081265091862      3.467701326352
 H         5.012839422457    -12.124142381893      2.647519220365
 C         7.762629002534    -10.305608311743      2.787820586712
 Zn        8.284463160970     -8.981942405832      0.009837815275
 C         7.784319536069    -10.310700869505     -2.769391152869
 C         6.794880954864    -11.097237808608     -3.453341215228
 H         5.045179638002    -12.146810228051     -2.643748203791
 H         6.725740841602    -11.272609526834      4.525383285192
 C         8.836718396241     -9.623987457069      3.440405706993
 N         9.633253912808     -8.349593625550      1.477946821252
 N         9.654053113379     -8.363461748886     -1.444052138688
 C         8.864231423674     -9.630155792948     -3.413383364968
 H         6.772820300055    -11.298143905442     -4.509621909144
 C         9.690680935096     -8.718078754837      2.815361544952
 C        10.616539650459     -7.461611304370      1.296068402935
 C        10.627424362719     -7.465946221477     -1.259198537205
 C         9.715195261435     -8.726530146521     -2.782100096952
 C        10.784814315534     -8.024171715997      3.449923945908
 C        11.340499814078     -7.215601038648      2.510774534009
 C        10.960571784490     -6.880175374781      0.018633791658
 C        11.352264632353     -7.211607168636     -2.472383499332
 C        10.805721507000     -8.023272513331     -3.413589738004
 H        11.103059926135     -8.159895883148      4.468284366910
 H        12.194904958942     -6.567934478434      2.612072887933
 C        11.656397727967     -5.709978337425      0.020404891129
 H        12.200572388161     -6.555609018024     -2.571058327145
 H        11.125958813039     -8.153708200201     -4.432004930790
 C        12.140947538845     -4.565095984900      0.021417014088
 C         9.037222068787     -9.905023524611      4.886095075597
 C         8.959104156672     -8.882602018532      5.840556000602
 C         9.317410503340    -11.210840701321      5.312079057524
 H         8.724932065515     -7.874044404561      5.525724551277
 H         9.394558498359    -12.007319732469      4.584021257113
 C         9.155281467776     -9.160414310972      7.187976871162
 C         9.532232708084    -11.480598798247      6.657705588299
 H         9.080684274024     -8.364653224117      7.917053523114
 H         9.769585825875    -12.488318464107      6.970609619782
 C         9.448074207732    -10.457707506938      7.598846327781
 H         9.610713549442    -10.671273626439      8.646595614634
 C         9.073254747282     -9.909404836077     -4.858787663414
 C         9.367152192910    -11.212302652902     -5.283854663974
 C         8.988712408286     -8.887421008571     -5.812916045810
 H         9.449154086777    -12.008259050798     -4.555707158320
 H         8.744902154286     -7.881072175099     -5.498237223135
 C         9.588663601900    -11.479759665982     -6.628947784269
 C         9.192101056968     -9.163083698086     -7.159824401012
 H         9.836262236056    -12.485190478858     -6.941302388924
 H         9.112950353052     -8.367734405179     -7.888890900326
 C         9.498081772314    -10.457473858887     -7.570106237439
 H         9.666156913724    -10.669249602941     -8.617363024905
 C        13.121322783362      2.865042986539      4.852891271110
 C        12.453462079517      2.094324960614      5.812990786036
 C        14.120181097599      3.754692742017      5.271588494278
 H        11.668486984960      1.416834215217      5.503064483060
 H        14.653441264183      4.345633676954      4.538855576891
 C        12.776582403271      2.212218502308      7.159572993890
 C        14.453111965588      3.855478307169      6.616552515440
 H        12.246102151295      1.619953864938      7.893196135715
 H        15.240773457051      4.529822434600      6.924149916705
 C        13.780192748104      3.087924920957      7.563680029546
 H        14.037967675199      3.171729384002      8.610759080582
 C        13.100527327390      2.790735839161     -4.893765065262
 C        12.442522561998      1.995189650194     -5.840600476644
 C        14.087784637749      3.686030303982     -5.328332108849
 H        11.665483284874      1.313963419628     -5.519200083027
 H        14.613558459585      4.296227928842     -4.606097340038
 C        12.763722930350      2.094177277622     -7.189036948761
 C        14.419404309727      3.767729345309     -6.674798179553
 H        12.240296312689      1.483222639515     -7.912300964207
 H        15.198360004768      4.446649537401     -6.994233527002
 C        13.756194382365      2.975451786407     -7.608380064279
 H        14.012612998341      3.044679813497     -8.656853237071
 C         4.084397155683     12.730513028843      4.888664124202
 C         5.046222765960     13.651611544097      5.325274990532
 C         3.265733332469     12.103123455000      5.836167949199
 H         5.675365601456     14.153581065087      4.602262187666
 H         2.531822485088     11.377167644639      5.511339736481
 C         5.171812860126     13.949245899885      6.676480440469
 C         3.407739935657     12.389829485530      7.188700706165
 H         5.903246648583     14.677982488728      6.998553601983
 H         2.777485696325     11.890665805271      7.912594596028
 C         4.356126214860     13.316899093426      7.611238171759
 H         4.459051789220     13.546866303844      8.663086293849
 C         4.007013434657     12.831399426062     -4.855931956984
 C         3.145254883518     12.265800453648     -5.804857933018
 C         4.995259127756     13.728123033016     -5.285875968969
 H         2.392148436569     11.556722480687     -5.487087771678
 H         5.658087114848     14.183101496674     -4.561969545189
 C         3.270615215845     12.588571750228     -7.150622502785
 C         5.103848085277     14.063436441009     -6.629422071764
 H         2.607753964975     12.135674197415     -7.875759984950
 H         5.855879693573     14.773741770553     -6.945088581747
 C         4.245079779849     13.492067123920     -7.565049426795
 H         4.335314658165     13.750562698840     -8.611418677183
 C        -9.011142758163      9.873267379911      4.897564238659
 C        -9.409432229061     11.139174928962      5.347199496321
 C        -8.853163526216      8.839948994167      5.830076474378
 H        -9.552820560508     11.939690242037      4.633788914828
 H        -8.533731261010      7.861233983958      5.496376161751
 C        -9.654614836870     11.361387446240      6.697196306333
 C        -9.080765651712      9.071698295003      7.180807047245
 H        -9.980199978850     12.338067435570      7.028643865176
 H        -8.942321279994      8.270070194472      7.894003225698
 C        -9.487209911798     10.330457195168      7.616816232383
 H        -9.674974752161     10.505922732885      8.667439948578
 C        -8.962044894364      9.965561597005     -4.853814479166
 C        -7.932793959128      9.808216582568     -5.790881831272
 C       -10.231967879452     10.357522313659     -5.299400479320
 H        -6.953507578654      9.487968474393     -5.459972713071
 H       -11.031985037694     10.496741626562     -4.584478897978
 C        -8.169458639412     10.036302495543     -7.141277881248
 C       -10.458949045788     10.603203708516     -6.647654569850
 H        -7.369888920016      9.900362200048     -7.857227610990
 H       -11.437431933680     10.926699625257     -6.975812741954
 C        -9.430121641806     10.439652077764     -7.571817100341
 H        -9.610762247327     10.626753048360     -8.621687935326
 C       -13.089316106325     -2.839873171088      4.856589680184
 C       -14.369565588195     -2.474117225230      5.293813120670
 C       -12.136964039390     -3.239158946847      5.802629487273
 H       -15.118664620570     -2.177310197156      4.571781888505
 H       -11.140243639006     -3.507247934674      5.477269056772
 C       -14.691896834948     -2.524170018713      6.644277159776
 C       -12.458130656346     -3.269689842491      7.154585129393
 H       -15.689888857658     -2.259970957485      6.966763224804
 H       -11.710984831161     -3.569043449714      7.877480194421
 C       -13.736660461327     -2.918099069134      7.577738830875
 H       -13.988702534935     -2.951684423040      8.629030476062
 C       -13.094727175337     -2.889329626636     -4.893052651492
 C       -14.368788037858     -2.497828422959     -5.327439518585
 C       -12.160833772266     -3.329509902692     -5.839968173235
 H       -15.104161025045     -2.169434028303     -4.605090427740
 H       -11.167977563951     -3.615399292578     -5.518242310827
 C       -14.703496958121     -2.563829999853     -6.673979639679
 C       -12.493397461541     -3.374919337359     -7.188484815628
 H       -15.697051870087     -2.280012408045     -6.993411821941
 H       -11.759791729959     -3.704604306008     -7.912010000730
 C       -13.766234813001     -2.998460839314     -7.607709869340
 H       -14.027569018367     -3.043748899462     -8.656284010761
 C        -4.112146324544    -12.762988027921      4.868409081321
 C        -4.455391597984    -11.796181184995      5.822107952737
 C        -3.836172852416    -14.069348876603      5.295008285593
 H        -4.653090702263    -10.780132491564      5.506286730129
 H        -3.583555635835    -14.828994821933      4.567285609906
 C        -4.519577278262    -12.128581294587      7.170024739408
 C        -3.920344065929    -14.401802763552      6.641187915622
 H        -4.774617420974    -11.370672936130      7.898651584408
 H        -3.726486678849    -15.418571383265      6.954812639722
 C        -4.258285073783    -13.432250485486      7.581848881898
 H        -4.318373913366    -13.692480882361      8.629949192448
 C        -4.130661531256    -12.772881249363     -4.875580670238
 C        -3.846808027621    -14.079147397970     -5.297819887973
 C        -4.488032316184    -11.813805519408     -5.832107210460
 H        -3.583277213589    -14.833057208667     -4.568061019213
 H        -4.690962834632    -10.797555096920     -5.520341910448
 C        -3.937427774225    -14.419067268311     -6.641638889813
 C        -4.558251383975    -12.153310936292     -7.177834907852
 H        -3.737496098289    -15.435805136576     -6.951494376758
 H        -4.823576219390    -11.401058641714     -7.908637594833
 C        -4.289357799065    -13.456986906970     -7.584858465172
 H        -4.354135755048    -13.722906772446     -8.631246539535
 C        -0.935781820782      1.031695212055     -0.001092152524
 C         0.440697262678      1.330379689730     -0.002454933432
 C        -1.366475766762     -0.308937258973     -0.001863189934
 C         1.388761802262      0.287884054734     -0.002846700167
 C        -0.420069628906     -1.353655350772     -0.002818850530
 C         0.958221512689     -1.055386628108     -0.003312949874
 C         0.891589364185      2.763255765238      0.001856466316
 C         1.414533317401      3.352866323627      1.155949111132
 C         0.795773957097      3.551416922295     -1.148518001196
 H         1.496225266424      2.770269419194      2.064065725241
 H         0.401297393394      3.121617098734     -2.059744863132
 C         1.821839636062      4.680852324602      1.161694314063
 C         1.210343947886      4.876655265803     -1.147755624419
 H         2.190451901813      5.110820254827      2.083390306683
 H         1.151522907667      5.443729402348     -2.067065239355
 C         1.729934129618      5.470768074592      0.008952624105
 C        -1.943354376213      2.146114817105      0.001428092838
 C        -2.208005042099      2.875757366509      1.163694633057
 C        -2.641798086261      2.490235070618     -1.159084536735
 H        -1.688210150436      2.628945781242      2.080019145786
 H        -2.455173379350      1.947586964511     -2.076396786587
 C        -3.136223793894      3.908914303879      1.167146646767
 C        -3.564173173660      3.528585313799     -1.160376824916
 H        -3.336335766251      4.428782475941      2.094447497999
 H        -4.059380181246      3.786375505818     -2.086902417228
 C        -3.832050889081      4.259830696355      0.003618627390
 C        -2.835851829975     -0.621858883058     -0.009080864791
 C        -3.613788601463     -0.459410123590      1.140761602358
 C        -3.468939463040     -1.086232935443     -1.165330972397
 H        -3.152028087296     -0.106304058576      2.053345501500
 H        -2.895318118589     -1.215488337946     -2.073640559153
 C        -4.969903384387     -0.758544762928      1.138696381806
 C        -4.827106540932     -1.377452370166     -1.172393334684
 H        -5.529774370520     -0.653361674551      2.058260500543
 H        -5.286941908179     -1.704110531418     -2.095497182436
 C        -5.606232888490     -1.223689718190     -0.018857324764
 C        -0.884499150094     -2.781872657615     -0.007162054381
 C        -1.522206947652     -3.335133459906      1.107391997535
 C        -0.696713434341     -3.601180070734     -1.124404153430
 H        -1.689930638660     -2.725444881872      1.984920394647
 H        -0.197597030646     -3.206323726847     -1.999157971324
 C        -1.951824523669     -4.655554402642      1.107909723081
 C        -1.133139695154     -4.919899226307     -1.129681154478
 H        -2.459843265844     -5.041066913156      1.981797517460
 H        -0.951183416308     -5.528857533105     -2.005253078025
 C        -1.768250068181     -5.475339787852     -0.012183551821
 C         1.968871010695     -2.166181590862     -0.004527479740
 C         2.787410534453     -2.395357573464     -1.114695014869
 C         2.126027202003     -3.001894203243      1.105375335955
 H         2.696519327403     -1.760679929667     -1.985943570603
 H         1.500510384215     -2.857636964248      1.976067878902
 C         3.724838654400     -3.419930296259     -1.116890381554
 C         3.069880755892     -4.020760525456      1.109649792564
 H         4.354356950810     -3.553131069863     -1.986647607783
 H         3.149628323130     -4.658466814957      1.980013804270
 C         3.888515572168     -4.251671105930     -0.002543245499
 C         2.855729982449      0.609988265632      0.002667764591
 C         3.651060767161      0.338458583568      1.120029045328
 C         3.471846133402      1.188532260759     -1.111183617794
 H         3.206375618232     -0.116839233579      1.994761562874
 H         2.882605980320      1.420244520814     -1.988142431813
 C         5.008424245801      0.633003938036      1.124359316544
 C         4.830511616925      1.475860849624     -1.112791515650
 H         5.595314532141      0.387767199039      1.999558539193
 H         5.267020224375      1.940792590340     -1.986724822347
 C         5.627562010663      1.204130139698      0.005835439959
 C        -7.054637127825     -1.545195484758     -0.020374693544
 C        -7.593008977812     -2.535609580062     -0.851558442986
 C        -8.951641733633     -2.803689321740     -0.822527701947
 N        -9.809327032322     -2.162745156283     -0.016831971730
 C        -9.305761779694     -1.215816433987      0.786741295160
 C        -7.962523011874     -0.878325538204      0.811754162088
 H        -6.959794893842     -3.115930747736     -1.506730331907
 H        -9.378760670786     -3.564388109259     -1.461098693463
 H       -10.013269785058     -0.708481304603      1.427469251072
 H        -7.636589128378     -0.083078835333      1.466214540763
 C        -4.818903384889      5.367599456606      0.003406550265
 C        -5.925705674086      5.372228553677     -0.854544492955
 C        -6.821891163897      6.427925274840     -0.827195099718
 N        -6.699101256004      7.473449321717      0.002099635623
 C        -5.646522030393      7.478647331185      0.831264118154
 C        -4.698256533887      6.469213367500      0.860124005456
 H        -6.109238124987      4.549754007739     -1.530396132382
 H        -7.678222733436      6.439901906104     -1.486718152916
 H        -5.563904643425      8.331174826882      1.491295061237
 H        -3.861013547559      6.558525574126      1.536943309535
 C         2.167999715423      6.888014556774      0.011521445870
 C         1.569972215751      7.849671840509     -0.812749167916
 C         2.014426929786      9.161201562317     -0.784802028256
 N         3.004264342277      9.583664075418      0.013447178497
 C         3.580270903536      8.674222818936      0.811611074345
 C         3.203794594501      7.341510071457      0.837519823630
 H         0.746868058010      7.590453065618     -1.462625330406
 H         1.562625194712      9.911769048973     -1.418464314363
 H         4.377832102765      9.033903094324      1.446260598296
 H         3.736109189898      6.661160778554      1.486146033057
 C         7.079476001582      1.508072496816      0.003480897067
 C         7.850266734626      1.417074113161     -1.162550730967
 C         9.203408646587      1.710127311671     -1.122860775102
 N         9.838589648055      2.082009398298     -0.003801581666
 C         9.113323399736      2.171604493020      1.118770350194
 C         7.755660400089      1.900448744147      1.165651267155
 H         7.409708205266      1.097742540035     -2.095886366396
 H         9.811614898040      1.639419974582     -2.014169330505
 H         9.646677091384      2.481607745997      2.006955938757
 H         7.228885808922      2.019240201981      2.101455446671
 C         4.897629483650     -5.338774825357     -0.000163274850
 C         5.226503227592     -6.044131871891     -1.164620771991
 C         6.178646645509     -7.049159639895     -1.119577595457
 N         6.819621894914     -7.399234944304      0.003271496059
 C         6.512027678038     -6.734428879162      1.124652834988
 C         5.575596501587     -5.714626175216      1.166415160886
 H         4.729819270387     -5.833223876127     -2.100626787550
 H         6.437532805472     -7.606353884697     -2.009467440132
 H         7.047145705106     -7.031811337522      2.016050353021
 H         5.396797323010     -5.203804723725      2.101499550145
 C        -2.232947415315     -6.884005336215     -0.012504100770
 C        -2.697674086374     -7.509880206638     -1.176245608299
 C        -3.124859325482     -8.826788707688     -1.130740460390
 N        -3.124233657053     -9.557513929600     -0.008183169409
 C        -2.681962175411     -8.970876609167      1.111817614871
 C        -2.233390744462     -7.661097312449      1.152851034214
 H        -2.750784507788     -6.972869616816     -2.112258630864
 H        -3.490896696904     -9.321317346398     -2.020045544518
 H        -2.682360875805     -9.583598601843      2.002853355926
 H        -1.865334745711     -7.261877886490      2.086834695342
