480
c-P6[b6]T6 12+, BLYP35/6-31G*, E = -23373.7507521
 C         7.136293049424    -10.662607124513      1.343128074866
 C         6.756035438481    -11.173196855650      2.641963951862
 C         7.707634676270    -10.759262380939      3.507210708589
 C         8.624549954138     -9.918231610828      2.749756765512
 N         8.273347315358     -9.872747938380      1.465822803663
 H         5.930827820976    -11.837455228148      2.836447192914
 H         7.805204853372    -11.030381236175      4.541979580918
 C         9.830754481686     -9.276540094304      3.282238997890
 C        10.505666599329     -8.268974306737      2.613096450511
 C        11.594568349157     -7.490210699972      3.162585912071
 N        10.226594846795     -7.809226822866      1.325568810384
 C        11.961964146684     -6.593195363777      2.210588333615
 H        12.002903518164     -7.600592638909      4.152248193084
 C        11.106241823732     -6.840651103778      1.084030693250
 H        12.747067295165     -5.857775857609      2.258706659939
 C        11.244797447916     -6.169063196047     -0.209029130454
 C        10.899106817475     -6.745578304695     -1.414838621916
 C        11.291695031052     -6.289682186978     -2.732370665628
 N        10.214268748345     -7.951947070497     -1.521488211984
 C        10.896388492613     -7.247681834007     -3.599741070756
 H        11.847169239665     -5.391725665557     -2.944321523254
 C        10.222465495155     -8.269958445752     -2.810326466245
 H        11.045047331878     -7.278648214525     -4.664878459616
 C         9.603413951043     -9.469031136919     -3.383227368868
 C         8.637438928568    -10.200391266034     -2.706152873615
 C         8.045349473698    -11.438632643682     -3.159885290268
 N         8.118026930492     -9.888492334948     -1.443659253443
 C         7.149879390016    -11.824900176654     -2.214302851154
 H         8.315263242324    -11.970735396602     -4.054906029564
 C         7.250095240896    -10.858022261810     -1.159730483748
 H         6.547144677833    -12.717333215400     -2.198240407878
 C         6.581820046779    -11.025660581944      0.132561644713
 Zn        8.826499495728     -8.518486535786     -0.040522924520
 C         5.329173689498    -11.673974847058      0.113491940379
 C         4.187362627525    -12.092981253823      0.053965544080
 C        11.821289542518     -4.881173853891     -0.202142524991
 C        12.192928025003     -3.722134742864     -0.174890450281
 C        12.924429618510      3.930115243919     -3.268013493892
 C        12.399004001975      5.014482321652     -2.578844148720
 C        12.919228927106      2.572427106035     -2.714137410357
 C        12.432073336796      6.391753978335     -3.017957369250
 N        11.796794451179      4.958525467748     -1.316441991914
 C        13.054959335482      1.366413763635     -3.519196427115
 N        12.750864819383      2.274369057728     -1.430921928981
 C        11.808945885843      7.131004214294     -2.064175513592
 H        12.911994350886      6.753622494678     -3.909977544750
 C        11.461911348854      6.212022024362     -1.018295062976
 Zn       11.783747687852      3.397299483532      0.063268208012
 C        12.953998090927      0.321190585525     -2.667842407003
 H        13.213680767792      1.340297203484     -4.583000365253
 C        12.801324206483      0.887201596412     -1.343739993456
 H        11.674330552772      8.199206031812     -2.037149136525
 C        10.947795175432      6.650671206401      0.280451431251
 N        12.690145162335      2.101693237829      1.414370173622
 N        11.908912479246      4.827001845625      1.593327615689
 H        13.036006681350     -0.728441018815     -2.894528399134
 C        12.828350207219      0.198189579837     -0.147138726313
 C        11.270836447488      6.056432965833      1.484254296854
 C        10.139697449040      7.807172979345      0.283166666809
 C        13.009305340546      0.836410095842      1.157474768894
 C        13.140285585495      2.356327714488      2.709827771672
 C        12.245455131500      4.690528061379      2.875224052678
 C        12.736605387600     -1.209604098165     -0.163879495264
 C        11.176552055832      6.672416293762      2.789726411806
 C         9.324261285951      8.711092569038      0.259005775774
 C        13.636685307586      0.197696889284      2.281008769450
 C        13.728256931374      1.147913010759      3.247475504265
 C        13.011114204552      3.553093083369      3.395607309258
 C        11.828959476348      5.854632134700      3.645029124452
 C        12.520563822167     -2.407770066814     -0.161277895146
 H        10.757460392729      7.642970041466      2.995332894484
 H        13.980676990668     -0.822036832719      2.317685080520
 H        14.130971731402      1.038132801721      4.239520067907
 H        12.045624874237      6.039670193983      4.680716653692
 C        -2.860916576430     12.399930326098     -0.237505424683
 C        -4.163421010694     12.028453359975     -0.243454387114
 C        -1.670948329083     12.657327730415     -0.245653526244
 C        -5.309762602677     11.618919245953     -0.261816616882
 C        -0.268593441142     12.805085068114     -0.228311868535
 C        -6.577371927352     10.999405614377     -0.251307651663
 C         0.426996316644     12.775520702613     -1.420634658085
 C         0.354431249258     13.060737651270      1.071334108393
 C        -7.152344955778     10.622133035134     -1.448822825592
 C        -7.231116585289     10.852565858544      1.049699959969
 C        -0.134701031163     12.863097766261     -2.750364224938
 N         1.815730305488     12.813195254944     -1.495491581144
 C        -0.269243640469     13.841787569956      2.100615297138
 N         1.600763500941     12.715622750027      1.383881764539
 N        -8.331262755669      9.889465675381     -1.538052551312
 C        -6.726033699971     11.022051037429     -2.773733530020
 N        -8.173528804487      9.950432797240      1.308306748479
 C        -6.995820977133     11.725048942684      2.166416787917
 C         0.910650689340     13.016631589910     -3.595658358537
 H        -1.185243622804     12.872295222843     -2.987340098244
 C         2.114398000962     12.977887437337     -2.780466737419
 Zn        2.965637641824     11.922029780152      0.003891641574
 C         0.677170674005     14.015908548728      3.059570738108
 H        -1.257648636978     14.267869465504      2.060342221491
 C         1.848314069153     13.279797341813      2.638647187560
 C        -8.663342298597      9.874751150345     -2.823738255183
 Zn       -8.838012149879      8.506826090113     -0.033968065101
 C        -7.676936659478     10.582723343915     -3.628271384909
 H        -5.853496499802     11.611677126661     -2.999351438463
 C        -8.627340145421     10.227885947893      2.597703017482
 C        -7.873630007515     11.342808315429      3.130096093592
 H        -6.280947607929     12.529573660178      2.200656802629
 H         0.884076862744     13.155396779738     -4.662333849181
 C         3.472854806538     13.070825970831     -3.327771051869
 N         4.541443559959     11.992388659873     -1.377999533585
 N         4.397965164631     12.187036166771      1.500867289085
 H         0.602972038679     14.625984400111      3.942332714439
 C         3.047494931507     13.184366157041      3.331644159839
 C        -9.840620305801      9.200153327295     -3.380035816449
 N       -10.190609589000      7.730629096262     -1.416145206350
 N       -10.152879202292      7.922003420402      1.492191541497
 H        -7.724646467545     10.722934688332     -4.693929908637
 C        -9.607797792558      9.529202854393      3.283076337261
 H        -7.985498400733     11.756658281432      4.117288344695
 C         4.581168952825     12.604624041350     -2.634288108944
 C         5.806650069597     11.725329353761     -1.065526765054
 C         4.209990152123     12.474791732110      2.785318204107
 C         5.612765220701     11.513067130551      1.427100474976
 C       -10.527428481718      8.213363540453     -2.686295320114
 C       -11.116058403157      6.821884773116     -1.116155385330
 C       -10.906267087449      6.759407564939      1.388961544374
 C       -10.212882706585      8.296153951469      2.769920076213
 C         5.959769396160     12.717346907359     -3.056004347624
 C         6.719824500340     12.128930819683     -2.096099717185
 C         6.242518303558     11.214039759478      0.235136606543
 C         5.296749601096     11.956942172399      3.600914011942
 C         6.152870231738     11.336092501305      2.756678298982
 C       -11.736793030140      7.555276822747     -3.128448025889
 C       -12.077958658927      6.657564315423     -2.168200949568
 C       -11.253707590340      6.171733194878      0.188431688501
 C       -11.407969197217      6.387686369516      2.693536320276
 C       -11.026881462105      7.368138667996      3.541907030378
 H         6.306319041530     13.222674680282     -3.940045275635
 H         7.793390932424     12.051521200577     -2.055956565227
 C         7.416759634319     10.433900194954      0.253430698249
 H         5.385411146875     12.070971473875      4.667157836634
 H         7.089639297918     10.860757203924      2.994182865371
 H       -12.281857858729      7.784008963324     -4.027098466723
 H       -12.939638666926      6.012019257209     -2.141184716389
 C       -11.860043045016      4.898272909386      0.202079512841
 H       -12.047302498379      5.546520562069      2.902186428061
 H       -11.304892877156      7.476750690651      4.573758916647
 C         8.349346368205      9.650996313832      0.248135479502
 C       -12.239640485640      3.741226373994      0.198036974358
 C       -12.566329922586      2.427079624761      0.211909149023
 C       -12.772679092403      1.227325780756      0.241028222318
 C       -12.834944002796     -0.181863967994      0.251511259310
 C       -12.791529675680     -0.845988215137      1.460956097199
 C       -13.030233759076     -0.841893631844     -1.040832263908
 C       -13.037245626180     -0.262533820191      2.761621879498
 N       -12.678327740009     -2.225804161396      1.581567794820
 N       -12.628914090029     -2.079244220007     -1.327482234324
 C       -13.819483346219     -0.268650337135     -2.092300089132
 C       -13.153166514826     -1.294217302385      3.626165670761
 H       -13.197123307817      0.784192114944      2.958140064926
 C       -12.888939946236     -2.508277220018      2.866146377930
 Zn      -11.791931659155     -3.381339082165      0.069384639657
 C       -13.164108485204     -2.370880617218     -2.588158450184
 C       -13.939036353977     -1.236356313228     -3.038083372067
 H       -14.287407452438      0.701251336390     -2.074068337428
 H       -13.432214725419     -1.243825869867      4.662198512367
 C       -12.938010564096     -3.873992548758      3.397148315775
 N       -11.873405483020     -4.948748450113      1.435372284928
 N       -12.005178050028     -4.865515073078     -1.411288483789
 C       -13.018838885436     -3.573024232115     -3.266783180878
 H       -14.537960052769     -1.201546332681     -3.930897938694
 C       -12.407922885971     -4.962192582198      2.724320938432
 C       -11.478871832766     -6.195279466231      1.190008759680
 C       -11.303027391347     -6.062558305165     -1.309330298417
 C       -12.288788916555     -4.710754784298     -2.698706240746
 C       -12.280876861614     -6.296218259512      3.270179784659
 C       -11.692660059797     -7.062393441769      2.314764638435
 C       -10.970859243456     -6.650051959195     -0.105429876670
 C       -11.109217715931     -6.628057989930     -2.628520262682
 C       -11.743771010137     -5.804481236115     -3.492098742850
 H       -12.579397257196     -6.596211387638      4.259754147631
 H       -11.452392251749     -8.111103850822      2.359453101202
 C       -10.140479902983     -7.790828772605     -0.096108614929
 H       -10.610283926043     -7.557933824859     -2.843954026230
 H       -11.848749157306     -5.915715156020     -4.557086136922
 C        -9.320476791115     -8.689248441462     -0.045407147736
 C        -8.345151507468     -9.627976438470      0.007560158838
 C        -7.416350641449    -10.412815161299      0.066338798087
 C        -6.245062406208    -11.199046033698      0.099478504833
 C        -5.670234821833    -11.503327250481      1.317039604777
 C        -5.745739832416    -11.694997477023     -1.183821579754
 C        -6.270526285323    -11.324785666304      2.622926827789
 N        -4.449939283840    -12.158714094987      1.448079023741
 N        -4.481792836837    -12.049416479434     -1.400648495282
 C        -6.580584585923    -11.940486029519     -2.326336976891
 C        -5.441904773491    -11.923007745286      3.507292342167
 H        -7.223087794189    -10.860770035459      2.815861110986
 C        -4.311802027814    -12.429856737904      2.740231885200
 Zn       -2.945522520365    -11.901805328207     -0.005375012689
 C        -4.449684095069    -12.588170607336     -2.687297024066
 C        -5.774969343546    -12.506505640700     -3.262546527651
 H        -7.635299709866    -11.734484569420     -2.394929557096
 H        -5.571502706316    -12.026648566926      4.570316523126
 C        -3.159425774037    -13.112511604962      3.336574065256
 N        -1.643061131865    -12.681811051890      1.423573362113
 N        -1.728683443461    -12.756182274428     -1.488128779680
 C        -3.330263547599    -13.084565791718     -3.334553898460
 H        -6.043421958477    -12.817544041194     -4.257298500209
 C        -1.939544805121    -13.217872594898      2.682728547317
 C        -0.386302821219    -13.039226206835      1.164680658077
 C        -0.348599349332    -12.822734178497     -1.339004676334
 C        -1.978077752629    -12.987075962591     -2.776093732756
 C        -0.786565807516    -13.946944084955      3.161175119368
 C         0.194638597288    -13.798845037292      2.233543234686
 C         0.291867099534    -12.831285725245     -0.116272119610
 C         0.268932420479    -13.060428684135     -2.625255293635
 C        -0.740801228688    -13.217965461337     -3.509058275977
 H        -0.747488832982    -14.537574755964      4.059318563944
 H         1.181002232675    -14.231369895983      2.238080808525
 C         1.697237115316    -12.716525614891     -0.075472147890
 H         1.324195434234    -13.187527057658     -2.799064532364
 H        -0.660446132082    -13.504774665482     -4.541077318011
 C         2.887074346797    -12.466275062078     -0.008554789427
 C        -3.347342480326    -13.680722765340      4.672049335467
 C        -2.404096242120    -13.480908688742      5.702607101548
 C        -4.479753903521    -14.482223683248      4.935462709976
 H        -1.564017769322    -12.820139253317      5.537786751313
 H        -5.203037431319    -14.671617293987      4.153346987224
 C        -2.582898116793    -14.071673740233      6.942656456875
 C        -4.631545178062    -15.100016529275      6.165167191385
 H        -1.868593362057    -13.892853896694      7.734346065432
 H        -5.478516275159    -15.748398334372      6.341919338897
 C        -3.686812055062    -14.893681839173      7.173637222512
 H        -3.816319272653    -15.366463174695      8.137801060035
 C        -3.509521362360    -13.826133018545     -4.590789420524
 C        -4.388124668275    -14.932860575140     -4.597101768093
 C        -2.840253717720    -13.483289917044     -5.783467054482
 H        -4.878311091459    -15.230733056908     -3.680386680897
 H        -2.209653109265    -12.605252837635     -5.820229644040
 C        -4.566492689704    -15.684442916724     -5.749058061770
 C        -3.055302123360    -14.214771159321     -6.937997742062
 H        -5.213465785218    -16.550571129829     -5.732084532494
 H        -2.568730586983    -13.924101634353     -7.858824139809
 C        -3.904895028618    -15.327370571647     -6.921789890460
 H        -4.045918379146    -15.910773120389     -7.821557076859
 C        10.396065325554     -9.796421495094      4.535444486725
 C         9.666154296301     -9.847646065702      5.740640655568
 C        11.727480565351    -10.269662942272      4.525164137862
 H         8.666872957234     -9.436530583888      5.789305454688
 H        12.286174266834    -10.272205041302      3.599294881938
 C        10.254543057540    -10.342416381433      6.890983257107
 C        12.295383991498    -10.800864084647      5.673660796055
 H         9.702673721636    -10.344268376699      7.820823261573
 H        13.302528567361    -11.193101324303      5.644466474994
 C        11.564040235324    -10.836444919739      6.858723069450
 H        12.007056768288    -11.247577081134      7.755680649999
 C        10.046276823825     -9.865899248942     -4.720387223093
 C         9.127014581184    -10.212538423597     -5.733527171989
 C        11.427692971683     -9.942755979533     -5.003031298055
 H         8.066460549497    -10.099897492478     -5.554470763344
 H        12.151749807745     -9.707595368346     -4.234167337561
 C         9.575398942314    -10.631483213268     -6.975355188797
 C        11.867813473460    -10.398808285450     -6.233961868717
 H         8.864465024257    -10.870701775734     -7.754021917099
 H        12.927428436899    -10.497194886723     -6.425105701881
 C        10.944136013204    -10.740293689142     -7.225091251060
 H        11.291916732083    -11.082262008458     -8.190498155075
 C        13.746938211804      3.730163593339      4.655247703232
 C        15.144518760904      3.520274848763      4.650197504355
 C        13.120864194489      4.104512889336      5.861961962508
 H        15.643487079318      3.270809894703      3.723837974417
 H        12.045529170397      4.212290255438      5.906374078857
 C        15.889496291135      3.707181932764      5.805025473076
 C        13.866665693621      4.249833707130      7.018117827395
 H        16.962806150531      3.579046101082      5.780085233299
 H        13.375843807169      4.500373182979      7.948432253962
 C        15.254757541682      4.068911661899      6.991125139910
 H        15.834345835981      4.212156131415      7.893010537719
 C        13.506118016548      4.096452922967     -4.600806716311
 C        12.852653189028      4.836783935675     -5.608917241970
 C        14.771261742214      3.536281602928     -4.883094235593
 H        11.857157051557      5.219982024133     -5.430856491735
 H        15.303326913699      2.987005503168     -4.117649470899
 C        13.449675032140      5.018431798553     -6.845567059298
 C        15.377962453313      3.754768412361     -6.108315242206
 H        12.930987872002      5.565172594267     -7.620818862962
 H        16.366298382249      3.359817795356     -6.298612046400
 C        14.718049882018      4.492144695325     -7.094605772417
 H        15.188881504021      4.648258210774     -8.055774665835
 C         3.203779234799     13.783608281586      4.656242802935
 C         4.343425302626     14.570682250094      4.934366217632
 C         2.224388957811     13.630812463835      5.661353767964
 H         5.094885048298     14.723961897934      4.171216810524
 H         1.377675597553     12.980758431948      5.488637567090
 C         4.467935762202     15.220579255550      6.150342098656
 C         2.375584095577     14.252801435839      6.889380676987
 H         5.321460343441     15.857644749185      6.336401455378
 H         1.633661298326     14.109385254270      7.662653278486
 C         3.487568957080     15.060780898592      7.132853023142
 H         3.595386740062     15.558348243233      8.087178022208
 C         3.609457352834     13.671849551133     -4.653895822405
 C         4.407294105250     13.082614939811     -5.658291960626
 C         2.960824125271     14.895026345557     -4.934033769541
 H         4.859204432810     12.115830384613     -5.483793632142
 H         2.365216743463     15.379041367226     -4.171414383407
 C         4.559038804510     13.701766519191     -6.887738185075
 C         3.148939852740     15.526577951819     -6.151535249633
 H         5.150899887770     13.230946044077     -7.660391920314
 H         2.685034883588     16.484972421788     -6.339272272800
 C         3.944558203362     14.930816800084     -7.133366782163
 H         4.077615841125     15.420090374074     -8.088790787561
 C       -10.134799002574     10.092413021178      4.533963812457
 C       -10.644424934838     11.410354319577      4.513541019973
 C       -10.158647988735      9.373915395846      5.746947308079
 H       -10.668131210319     11.959118904134      3.582071200830
 H        -9.720474369588      8.386596169021      5.803096272101
 C       -11.183965793395     11.975285371870      5.659560396987
 C       -10.662608419626      9.960085801846      6.894349486909
 H       -11.603968364557     12.970913491840      5.622694306309
 H       -10.644155278174      9.417768026784      7.829611962938
 C       -11.192517927899     11.255290031382      6.852063797954
 H       -11.610534725885     11.695853000680      7.747050312234
 C       -10.262783162846      9.608964361785     -4.720656771689
 C       -10.401590883502     10.982286409415     -5.018394399950
 C       -10.573347263907      8.663895451516     -5.721485647905
 H       -10.194687543815     11.724686796102     -4.258957398369
 H       -10.413944916069      7.611331346855     -5.531045510701
 C       -10.882267632854     11.387919071801     -6.251870951075
 C       -11.017279317854      9.079235894639     -6.966155200146
 H       -11.027938319125     12.439966727050     -6.454312303116
 H       -11.228686448262      8.349583481973     -7.735503663455
 C       -11.187336071883     10.438926778650     -7.230795555265
 H       -11.548719752312     10.760252383627     -8.198291041175
 C       -13.667765973172     -4.103447697310      4.652221064733
 C       -13.341400845306     -3.448690846754      5.857501466315
 C       -14.745961429449     -5.016801866535      4.643803111901
 H       -12.483618333757     -2.791470410188      5.904615110948
 H       -15.031807161155     -5.496945424603      3.717987457385
 C       -14.061107618377     -3.710834351014      7.009701323556
 C       -15.486797242388     -5.243019107244      5.794315626706
 H       -13.782407916942     -3.234402730142      7.939488254496
 H       -16.331988902081     -5.916762576987      5.766722914485
 C       -15.146282374070     -4.594828871594      6.979413248142
 H       -15.721416108841     -4.772852941234      7.877943832599
 C       -13.590673252273     -3.756550591914     -4.601350142205
 C       -14.350470089682     -4.913607126313     -4.880644625756
 C       -13.435216932227     -2.787035921666     -5.614940357366
 H       -14.505705049268     -5.658366592252     -4.111267424729
 H       -12.805630419543     -1.925585045227     -5.438756514348
 C       -14.971701490626     -5.065787615651     -6.108586816580
 C       -14.028561748688     -2.964919342631     -6.853905366298
 H       -15.588468577641     -5.933612902541     -6.296937515277
 H       -13.883376967439     -2.229515259288     -7.633056636695
 C       -14.809533312503     -4.095000094481     -7.100184071823
 H       -15.284478212129     -4.224399450028     -8.063295701821
 C         0.344919426007      1.384100755463      0.007979157782
 C         1.361490900970      0.399881343344     -0.001846983112
 C        -1.015076607551      0.992909707140      0.018050390736
 C         1.017975463803     -0.971185550278     -0.005054889526
 C        -1.355602662585     -0.378831283241      0.021635359931
 C        -0.339621350611     -1.360049542209      0.008189344109
 C         2.814761557739      0.808077582571      0.009631914666
 C         3.410764031274      1.337289670975      1.159882993207
 C         3.619157666241      0.671789822171     -1.127567110005
 H         2.820425931708      1.466158303810      2.057366801187
 H         3.198038502810      0.260476400041     -2.035166345498
 C         4.751217593974      1.709786751006      1.174835664572
 C         4.955774926533      1.055818335928     -1.120042725521
 H         5.163825142543      2.131262557085      2.082085731310
 H         5.542099508217      0.916809721995     -2.018809112218
 C         5.554151947962      1.581775785288      0.033108461927
 C         0.710495371533      2.847875549779      0.007790104765
 C         0.431877895127      3.669840794538      1.106176907360
 C         1.342832439921      3.442004515547     -1.090786151535
 H        -0.059679907969      3.253829387620      1.975065415102
 H         1.581125102496      2.843416030676     -1.959438799459
 C         0.768362930771      5.019021214216      1.107099408009
 C         1.679683371276      4.791092575154     -1.092346263163
 H         0.509029516171      5.612561700652      1.973263362428
 H         2.187311546568      5.192869226514     -1.958771851326
 C         1.401260107470      5.615848176744      0.007150576016
 C        -2.105184058291      2.037211778290      0.006363918568
 C        -2.879039939659      2.296582335636      1.143358803232
 C        -2.379745791712      2.786348564097     -1.143379436070
 H        -2.703217559311      1.734003858898      2.050488831542
 H        -1.798587560875      2.621256274867     -2.040921385419
 C        -3.874181714076      3.268187696712      1.136579844182
 C        -3.383854547885      3.749372859738     -1.157653029534
 H        -4.456622488584      3.422628322113      2.035362379249
 H        -3.547508096715      4.316691094660     -2.064494899177
 C        -4.151430539254      4.016493822239     -0.015675195335
 C        -2.805503959455     -0.802009219795      0.024556333917
 C        -3.451164883020     -1.177635097027      1.207592225891
 C        -3.554524988398     -0.838680092094     -1.156306028356
 H        -2.908397666850     -1.157487843888      2.143559557129
 H        -3.089867039821     -0.562873526377     -2.093815051272
 C        -4.786563066630     -1.566185968153      1.212609079463
 C        -4.888382319920     -1.234412987238     -1.155549998801
 H        -5.248553398314     -1.814544480020      2.158701734734
 H        -5.414790365655     -1.276691860875     -2.099713808950
 C        -5.538576239631     -1.605965767650      0.029894948930
 C        -0.705823253628     -2.825369192813      0.007484098290
 C        -1.001978062957     -3.499812665694     -1.181785018942
 C        -0.763618895760     -3.560951115911      1.195960587376
 H        -0.962504529926     -2.967732042891     -2.123227029714
 H        -0.547429103691     -3.074289729933      2.137974089011
 C        -1.338828594400     -4.849532510261     -1.184390555106
 C        -1.105298625495     -4.909456536369      1.197148781641
 H        -1.529347293953     -5.332742265944     -2.133366142381
 H        -1.166264384845     -5.426179674406      2.145630592031
 C        -1.400461161077     -5.587713161975      0.006045723358
 C         2.101456496557     -2.023463668957     -0.007712330654
 C         2.747967898954     -2.403999576623      1.172987577015
 C         2.499293087357     -2.655044168676     -1.191074875445
 H         2.463865368511     -1.944963871398      2.110786173649
 H         2.027352338585     -2.385348746487     -2.126795201363
 C         3.747929328827     -3.371387746438      1.171404869591
 C         3.503955957165     -3.616771551853     -1.196921412810
 H         4.195321465911     -3.652934487761      2.115292202528
 H         3.798732217259     -4.049824699249     -2.143372749233
 C         4.153394145575     -3.999670286060     -0.014708780777
 C        -5.218724028365      5.053927833262     -0.023252876427
 C        -5.989159690454      5.325548945387     -1.163446952618
 C        -6.978133317745      6.296701162056     -1.125478383937
 N        -7.256800101484      7.025280261820     -0.032022342565
 C        -6.523064048654      6.777008907398      1.065265002431
 C        -5.519413945394      5.821753431069      1.111654215760
 H        -5.842181670072      4.768964878834     -2.077871953165
 H        -7.583987409136      6.496917640162     -1.998587893945
 H        -6.748711023042      7.376897989157      1.936443742782
 H        -4.962106204971      5.697780537232      2.028982665847
 C         1.761237348621      7.060824373148      0.006582489716
 C         1.908267360156      7.796615137736     -1.179686855236
 C         2.253527370377      9.138384836197     -1.136955404937
 N         2.446784768485      9.817397234763      0.005346558455
 C         2.300000198094      9.127857118636      1.148259673411
 C         1.976566444586      7.780683136685      1.192190445997
 H         1.738643094684      7.340689463385     -2.143976418806
 H         2.377114109879      9.698748948427     -2.053672708877
 H         2.453453897962      9.681597511811      2.064481956741
 H         1.912995474765      7.299254036536      2.156912469996
 C         6.985425135913      1.989600794596      0.041343267223
 C         7.614034468353      2.523353876280     -1.093379747924
 C         8.949182353188      2.893543234356     -1.045740641397
 N         9.711652592962      2.768200400524      0.052845024411
 C         9.121528690510      2.256712193290      1.145698414504
 C         7.791896928255      1.865527809286      1.182368482396
 H         7.065006074806      2.676608299475     -2.011255798774
 H         9.431713611610      3.319375335576     -1.914811987409
 H         9.747562141086      2.151623725555      2.021355628271
 H         7.398741722516      1.444815453242      2.096696390225
 C         5.228845749335     -5.029294555059     -0.020825417659
 C         5.288114740442     -6.044168608299     -0.987819955515
 C         6.309315440887     -6.981238121590     -0.962842992961
 N         7.281253479436     -6.992135756691     -0.035597805544
 C         7.233939947975     -6.028282787928      0.898895562382
 C         6.252590644870     -5.050034094689      0.938594682868
 H         4.532638299654     -6.125922504624     -1.755483704831
 H         6.354488953965     -7.764369932212     -1.707037729596
 H         8.022249668621     -6.043199517137      1.639003558318
 H         6.305946616854     -4.297361693554      1.711526768645
 C        -1.763691393281     -7.031599211115      0.005364630388
 C        -2.584919694843     -7.597101482239     -0.981952297687
 C        -2.894647156481     -8.947901998072     -0.949777676859
 N        -2.453037317068     -9.786279801377      0.002439814775
 C        -1.669905643526     -9.256485443946      0.956735902587
 C        -1.307292283037     -7.918914886397      0.991674463359
 H        -3.004043671143     -6.990442413965     -1.771374248293
 H        -3.527584718226     -9.382610060443     -1.711259676702
 H        -1.316116627604     -9.941446474514      1.714906889700
 H        -0.651938041170     -7.582836511609      1.781870409148
 C        -6.967664038884     -2.023664037944      0.034796342999
 C        -7.884594121515     -1.569006117750     -0.924813973375
 C        -9.207530949659     -1.981296068607     -0.884873114494
 N        -9.695685374767     -2.813060866924      0.050266606820
 C        -8.828628894987     -3.254346830099      0.976536934994
 C        -7.489546732811     -2.897025720418      1.001275870417
 H        -7.583730830835     -0.876789034590     -1.697523489111
 H        -9.915112975622     -1.628924429130     -1.622631425689
 H        -9.229741481436     -3.926434483719      1.722778439846
 H        -6.857630985877     -3.319230756264      1.768854126664
